Version 4
SHEET 1 5500 1380
WIRE 80 32 -208 32
WIRE 304 32 160 32
WIRE 448 32 304 32
WIRE -208 80 -208 32
WIRE 304 112 304 32
WIRE 448 112 448 32
WIRE -208 224 -208 160
WIRE 304 224 304 192
WIRE 304 224 -208 224
WIRE 448 224 448 176
WIRE 448 224 304 224
WIRE 448 240 448 224
WIRE 80 304 -208 304
WIRE 304 304 160 304
WIRE 448 304 304 304
WIRE -208 352 -208 304
WIRE -960 384 -960 352
WIRE -960 384 -992 384
WIRE 304 384 304 304
WIRE 448 384 448 304
WIRE -960 416 -960 384
WIRE -208 496 -208 432
WIRE 304 496 304 464
WIRE 304 496 -208 496
WIRE 448 496 448 448
WIRE 448 496 304 496
WIRE 448 512 448 496
WIRE 96 560 -192 560
WIRE 320 560 176 560
WIRE 464 560 320 560
WIRE -192 608 -192 560
WIRE 320 640 320 560
WIRE 464 640 464 560
WIRE -192 752 -192 688
WIRE 320 752 320 720
WIRE 320 752 -192 752
WIRE 464 752 464 704
WIRE 464 752 320 752
WIRE 464 768 464 752
WIRE 96 832 -192 832
WIRE 320 832 176 832
WIRE 464 832 320 832
WIRE -192 880 -192 832
WIRE 320 912 320 832
WIRE 464 912 464 832
WIRE -192 1024 -192 960
WIRE 320 1024 320 992
WIRE 320 1024 -192 1024
WIRE 464 1024 464 976
WIRE 464 1024 320 1024
WIRE 464 1040 464 1024
WIRE 96 1136 -192 1136
WIRE 320 1136 176 1136
WIRE 464 1136 320 1136
WIRE -192 1184 -192 1136
WIRE 320 1216 320 1136
WIRE 464 1216 464 1136
WIRE -192 1328 -192 1264
WIRE 320 1328 320 1296
WIRE 320 1328 -192 1328
WIRE 464 1328 464 1280
WIRE 464 1328 320 1328
WIRE 464 1344 464 1328
FLAG 448 240 0
FLAG -992 384 0
FLAG -960 272 Vcc
FLAG -960 496 Vee
FLAG 448 512 0
FLAG 464 768 0
FLAG 464 1040 0
FLAG 464 1344 0
SYMBOL res 176 16 R90
WINDOW 0 0 56 VBottom 2
WINDOW 3 32 56 VTop 2
SYMATTR InstName R1
SYMATTR Value {R}
SYMBOL res 320 208 R180
WINDOW 0 36 76 Left 2
WINDOW 3 36 40 Left 2
SYMATTR InstName Rpr
SYMATTR Value 1Meg
SYMBOL cap 432 112 R0
SYMATTR InstName Cpr
SYMATTR Value 61.9pF
SYMBOL voltage -960 256 R0
WINDOW 123 0 0 Left 0
WINDOW 39 0 0 Left 0
SYMATTR InstName V2
SYMATTR Value {Vbatt-Vref}
SYMBOL voltage -960 400 R0
WINDOW 123 0 0 Left 0
WINDOW 39 0 0 Left 0
SYMATTR InstName V3
SYMATTR Value {Vref}
SYMBOL res 176 288 R90
WINDOW 0 0 56 VBottom 2
WINDOW 3 32 56 VTop 2
SYMATTR InstName R2
SYMATTR Value {R}
SYMBOL res 320 480 R180
WINDOW 0 36 76 Left 2
WINDOW 3 36 40 Left 2
SYMATTR InstName Rpr1
SYMATTR Value 266k
SYMBOL cap 432 384 R0
SYMATTR InstName Cpr1
SYMATTR Value 2.43nF
SYMBOL voltage -208 336 R0
WINDOW 123 0 0 Left 0
WINDOW 39 0 0 Left 0
WINDOW 3 -425 114 Left 2
SYMATTR Value PULSE({-Vref} {Vbatt-Vref} 0 1u 1u {1/(2*freq)} {1/freq})
SYMATTR InstName V4
SYMBOL voltage -208 64 R0
WINDOW 123 0 0 Left 0
WINDOW 39 0 0 Left 0
WINDOW 3 -430 121 Left 2
SYMATTR Value PULSE({-Vref} {Vbatt-Vref} 0 1u 1u {1/(2*freq)} {1/freq})
SYMATTR InstName V1
SYMBOL res 192 544 R90
WINDOW 0 0 56 VBottom 2
WINDOW 3 32 56 VTop 2
SYMATTR InstName R3
SYMATTR Value {R}
SYMBOL res 336 736 R180
WINDOW 0 36 76 Left 2
WINDOW 3 36 40 Left 2
SYMATTR InstName Rpr2
SYMATTR Value 10k
SYMBOL cap 448 640 R0
SYMATTR InstName Cpr2
SYMATTR Value 4.79nF
SYMBOL voltage -192 592 R0
WINDOW 123 0 0 Left 0
WINDOW 39 0 0 Left 0
WINDOW 3 -425 114 Left 2
SYMATTR Value PULSE({-Vref} {Vbatt-Vref} 0 1u 1u {1/(2*freq)} {1/freq})
SYMATTR InstName V5
SYMBOL res 192 816 R90
WINDOW 0 0 56 VBottom 2
WINDOW 3 32 56 VTop 2
SYMATTR InstName R4
SYMATTR Value {R}
SYMBOL res 336 1008 R180
WINDOW 0 36 76 Left 2
WINDOW 3 36 40 Left 2
SYMATTR InstName Rpr3
SYMATTR Value 6.5k
SYMBOL cap 448 912 R0
SYMATTR InstName Cpr3
SYMATTR Value 8.76nF
SYMBOL voltage -192 864 R0
WINDOW 123 0 0 Left 0
WINDOW 39 0 0 Left 0
WINDOW 3 -425 114 Left 2
SYMATTR Value PULSE({-Vref} {Vbatt-Vref} 0 1u 1u {1/(2*freq)} {1/freq})
SYMATTR InstName V6
SYMBOL res 336 1312 R180
WINDOW 0 36 76 Left 2
WINDOW 3 36 40 Left 2
SYMATTR InstName Rpr4
SYMATTR Value 750
SYMBOL cap 448 1216 R0
SYMATTR InstName Cpr4
SYMATTR Value 58.8nF
SYMBOL voltage -192 1168 R0
WINDOW 123 0 0 Left 0
WINDOW 39 0 0 Left 0
WINDOW 3 -425 114 Left 2
SYMATTR Value PULSE({-Vref} {Vbatt-Vref} 0 1u 1u {1/(2*freq)} {1/freq})
SYMATTR InstName V7
SYMBOL res 192 1120 R90
WINDOW 0 0 56 VBottom 2
WINDOW 3 32 56 VTop 2
SYMATTR InstName R5
SYMATTR Value {R}
TEXT -1088 56 Left 2 !.params freq=2k Vbatt=3 R=10k R1=5k Vref=1.25
TEXT -1088 176 Left 2 !.tran 0 110m 10m 1u
